$# LS-DYNA Keyword file created by LS-PrePost(R) V4.11(Beta)-29Jun2023
$# Created on Sep-15-2023 (19:01:18)
*KEYWORD
*TITLE
$#                                                                         title
LS-DYNA keyword deck by LS-PrePost
*CONTROL_TERMINATION
$#  endtim    endcyc     dtmin    endeng    endmas     nosol
      0.07         0       0.0       0.01.000000E8         0
*CONTROL_TIMESTEP
$#  dtinit    tssfac      isdo    tslimt     dt2ms      lctm     erode     ms1st
1.00000E-7       0.0         0       0.0       0.0         0         0         0
*CONTROL_UNITS
$#  length      time      mass      temp
mm        ms        kg        k
*DATABASE_MATSUM
$#      dt    binary      lcur     ioopt
1.00000E-6         0         0         1
*DATABASE_SECFORC
$#      dt    binary      lcur     ioopt
1.00000E-6         0         0         1
*DATABASE_BINARY_D3PLOT
$#      dt      lcdt      beam     npltc    psetid
1.00000E-6         0         0         0         0
*DATABASE_BINARY_D3THDT
$#      dt      lcdt      beam     npltc    psetid
1.00000E-6         0         0         0         0
*DATABASE_EXTENT_BINARY
$#   neiph     neips    maxint    strflg    sigflg    epsflg    rltflg    engflg
         0         0         3         1         1         1         1         1
$#  cmpflg    ieverp    beamip     dcomp      shge     stssz    n3thdt   ialemat
         0         0         0         1         1         1         2         1
$# nintsld   pkp_sen      sclp     hydro     msscl     therm    intout    nodout
         0         0       1.0         0         0         0                    
$#    dtdt    resplt     neipb   quadsld    cubsld   deleres
         0         0         0         0         0         0
*DATABASE_CROSS_SECTION_PLANE_ID
$#    csid                                                                 title
         1FRONT MID
$#    psid       xct       yct       zct       xch       ych       zch    radius
         0      50.0       0.0       0.0    5000.0       0.0       0.0       2.0
$#    xhev      yhev      zhev      lenl      lenm        id     itype
       0.0       0.0       0.0       0.0       0.0         0         0
*DATABASE_CROSS_SECTION_PLANE_ID
$#    csid                                                                 title
         2FRONT BACK
$#    psid       xct       yct       zct       xch       ych       zch    radius
         0      99.9       0.0       0.0    1000.0       0.0       0.0       2.0
$#    xhev      yhev      zhev      lenl      lenm        id     itype
       0.0       0.0       0.0       0.0       0.0         0         0
*DATABASE_CROSS_SECTION_PLANE_ID
$#    csid                                                                 title
         3BACK FRONT
$#    psid       xct       yct       zct       xch       ych       zch    radius
         0     100.1       0.0       0.0    1000.0       0.0       0.0       2.0
$#    xhev      yhev      zhev      lenl      lenm        id     itype
       0.0       0.0       0.0       0.0       0.0         0         0
*DATABASE_CROSS_SECTION_PLANE_ID
$#    csid                                                                 title
         4BACK MID
$#    psid       xct       yct       zct       xch       ych       zch    radius
         0     150.0       0.0       0.0     500.0       0.0       0.0       2.0
$#    xhev      yhev      zhev      lenl      lenm        id     itype
       0.0       0.0       0.0       0.0       0.0         0         0
*BOUNDARY_SPC_SET_ID
$#      id                                                               heading
         0END FIXED
$#    nsid       cid      dofx      dofy      dofz     dofrx     dofry     dofrz
         2         0         0         0         0         0         0         0
*SET_NODE_LIST_TITLE
CONSTRAINT
$#     sid       da1       da2       da3       da4    solver       its         -
         2       0.0       0.0       0.0       0.0MECH      1                   
$#    nid1      nid2      nid3      nid4      nid5      nid6      nid7      nid8
       707       808       606       505         0         0         0         0
*CONTACT_AUTOMATIC_SURFACE_TO_SURFACE_ID
$#     cid                                                                 title
         1impactor
$#   surfa     surfb  surfatyp  surfbtyp   saboxid   sbboxid      sapr      sbpr
         1         3         3         3         0         0         0         0
$#      fs        fd        dc        vc       vdc    penchk        bt        dt
       0.2       0.1       0.0       0.0       0.0         0       0.01.00000E20
$#    sfsa      sfsb      sast      sbst     sfsat     sfsbt       fsf       vsf
       1.0       1.0       0.0       0.0       1.0       1.0       1.0       1.0
*CONTACT_TIED_SURFACE_TO_SURFACE_ID
$#     cid                                                                 title
         2join
$#   surfa     surfb  surfatyp  surfbtyp   saboxid   sbboxid      sapr      sbpr
         2         1         3         3         0         0         0         0
$#      fs        fd        dc        vc       vdc    penchk        bt        dt
       0.2       0.1       0.0       0.0       0.0         0       0.01.00000E20
$#    sfsa      sfsb      sast      sbst     sfsat     sfsbt       fsf       vsf
       1.0       1.0       0.0       0.0       1.0       1.0       1.0       1.0
*CONTACT_TIED_SURFACE_TO_SURFACE_ID
$#     cid                                                                 title
         3join2
$#   surfa     surfb  surfatyp  surfbtyp   saboxid   sbboxid      sapr      sbpr
         4         2         3         3         0         0         0         0
$#      fs        fd        dc        vc       vdc    penchk        bt        dt
       0.2       0.1       0.0       0.0       0.0         0       0.01.00000E20
$#    sfsa      sfsb      sast      sbst     sfsat     sfsbt       fsf       vsf
       1.0       1.0       0.0       0.0       1.0       1.0       1.0       1.0
*NODE
$#   nid               x               y               z      tc      rc
       1             0.0             0.0             0.0       0       0
       2             1.0             0.0             0.0       0       0
       3             2.0             0.0             0.0       0       0
       4             3.0             0.0             0.0       0       0
       5             4.0             0.0             0.0       0       0
       6             5.0             0.0             0.0       0       0
       7             6.0             0.0             0.0       0       0
       8             7.0             0.0             0.0       0       0
       9             8.0             0.0             0.0       0       0
      10             9.0             0.0             0.0       0       0
      11            10.0             0.0             0.0       0       0
      12            11.0             0.0             0.0       0       0
      13            12.0             0.0             0.0       0       0
      14            13.0             0.0             0.0       0       0
      15            14.0             0.0             0.0       0       0
      16            15.0             0.0             0.0       0       0
      17            16.0             0.0             0.0       0       0
      18            17.0             0.0             0.0       0       0
      19            18.0             0.0             0.0       0       0
      20            19.0             0.0             0.0       0       0
$ ... 1596 like lines cut
*MAT_JOHNSON_HOLMQUIST_CERAMICS_TITLE
ALUMINA
$#     mid        ro         g         a         b         c         m         n
         13.70000E-6     90.16      0.93      0.31       0.0       0.6       0.6
$#    epsi         t     sfmax       hel      phel      beta
     0.001       0.2       0.0      2.79      1.46       1.0
$#      d1        d2        k1        k2        k3        fs
     0.005       1.0    130.95       0.0       0.0       0.0
*MAT_JOHNSON_COOK_TITLE
ALUMINIUM 5083
$#     mid        ro         g         e        pr       dtf        vp    rateop
         22.70000E-6      26.9      70.0       0.3       0.0       0.0       0.0
$#       a         b         n         c         m        tm        tr      epso
     0.167     0.596     0.551     0.001     0.859     893.0     300.0     0.001
$#      cp        pc     spall        it        d1        d2        d3        d4
     910.0      -1.5       2.0       0.0    0.0261     0.263    -0.349     0.247
$#      d5c2/p/xnp/d      erod     efmin    numint         k      eps1
      16.8       0.0       0.01.00000E-6       0.0       0.0       0.0
*MAT_PLASTIC_KINEMATIC_TITLE
EPON
$#     mid        ro         e        pr      sigy      etan      beta
         31.15000E-6       4.1      0.37     0.085       0.0       0.0
$#     src       srp        fs        vp
   2431.21      8.45       0.0       0.0
*MAT_SIMPLIFIED_JOHNSON_COOK_TITLE
ALUA20
$#     mid        ro         e        pr        vp
         43.11700E-6    49.264 0.2910933       0.0
$#       a         b         n         c    psfail    sigmax    sigsat      epso
  1.196278  0.035341  0.010472       0.0       0.0       0.0       0.0     0.001
*MAT_SIMPLIFIED_JOHNSON_COOK_TITLE
ALUA15
$#     mid        ro         e        pr        vp
         53.01900E-6    41.097 0.3018619       0.0
$#       a         b         n         c    psfail    sigmax    sigsat      epso
   0.91805   0.11161  0.030771       0.0       0.0       0.0       0.0     0.001
*MAT_SIMPLIFIED_JOHNSON_COOK_TITLE
ALU10
$#     mid        ro         e        pr        vp
         62.82000E-6    28.714 0.3148325       0.0
$#       a         b         n         c    psfail    sigmax    sigsat      epso
 0.6441172   0.19005  0.051664       0.0       0.0       0.0       0.0     0.001
*MAT_SIMPLIFIED_JOHNSON_COOK_TITLE
ALUE20
$#     mid        ro         e        pr        vp
         72.20600E-6    48.481 0.3114578       0.0
$#       a         b         n         c    psfail    sigmax    sigsat      epso
     0.447    21.612    5.4694    15.404     0.025     0.447     0.447     0.001
*MAT_SIMPLIFIED_JOHNSON_COOK_TITLE
ALUE15
$#     mid        ro         e        pr        vp
         81.96200E-6      28.3 0.3258159       0.0
$#       a         b         n         c    psfail    sigmax    sigsat      epso
  0.319976    7.0731    26.552     0.067     0.025  0.319976  0.319976     0.001
*MAT_SIMPLIFIED_JOHNSON_COOK_TITLE
ALU10
$#     mid        ro         e        pr        vp
         91.62500E-6     6.326   0.34311       0.0
$#       a         b         n         c    psfail    sigmax    sigsat      epso
   0.25131    16.907     6.288    0.0143     0.025   0.25131   0.25131     0.001
*INITIAL_VELOCITY_GENERATION
$#      id      styp     omega        vx        vy        vz     ivatn      icid
         3         2       0.0       5.0       0.0       0.0         0         0
$#      xc        yc        zc        nx        ny        nz     phase    irigid
       0.0       0.0       0.0       0.0       0.0       0.0         0         0
*DEFINE_CURVE_TITLE
ACCELERATION
$#    lcid      sidr       sfa       sfo      offa      offo    dattyp     lcint
         1         0       1.0       1.0       0.0       0.0         0         0
$#                a1                  o1
                 0.0                 0.0
    9.9999997474e-05               472.0
    1.9999999495e-04              1710.0
    3.0000001425e-04              3230.0
    3.9999998990e-04              4470.0
    5.0000002375e-04              4940.0
    6.0000002850e-04              4470.0
    6.9999997504e-04              3230.0
    7.9999997979e-04              1710.0
    8.9999998454e-04               472.0
*PART
$#                                                                         title
FRONT
$#     pid     secid       mid     eosid      hgid      grav    adpopt      tmid
         1         1         4         0         0         0         0         0
*SECTION_SOLID_TITLE
SOLID
$#   secid    elform       aet    unused    unused    unused    cohoff   gaskeit
         1         2         0                                     0.0       0.0
*PART
$#                                                                         title
MIDDLE
$#     pid     secid       mid     eosid      hgid      grav    adpopt      tmid
         2         1         5         0         0         0         0         0
*PART
$#                                                                         title
IMPACTOR
$#     pid     secid       mid     eosid      hgid      grav    adpopt      tmid
         3         1         4         0         0         0         0         0
*PART
$#                                                                         title
BACK
$#     pid     secid       mid     eosid      hgid      grav    adpopt      tmid
         4         1         6         0         0         0         0         0
*EOS_LINEAR_POLYNOMIAL_TITLE
ALUMINIUM 5083
$#   eosid        c0        c1        c2        c3        c4        c5        c6
         1       0.0     58.33       0.0       0.0       0.0       0.0       0.0
$#      e0        v0
       0.0       0.0
*ELEMENT_SOLID
$#   eid     pid      n1      n2      n3      n4      n5      n6      n7      n8
       1       1       1       2     103     102     203     204     305     304
       2       1       2       3     104     103     204     205     306     305
       3       1       3       4     105     104     205     206     307     306
       4       1       4       5     106     105     206     207     308     307
       5       1       5       6     107     106     207     208     309     308
       6       1       6       7     108     107     208     209     310     309
       7       1       7       8     109     108     209     210     311     310
       8       1       8       9     110     109     210     211     312     311
       9       1       9      10     111     110     211     212     313     312
      10       1      10      11     112     111     212     213     314     313
      11       1      11      12     113     112     213     214     315     314
      12       1      12      13     114     113     214     215     316     315
      13       1      13      14     115     114     215     216     317     316
      14       1      14      15     116     115     216     217     318     317
      15       1      15      16     117     116     217     218     319     318
      16       1      16      17     118     117     218     219     320     319
      17       1      17      18     119     118     219     220     321     320
      18       1      18      19     120     119     220     221     322     321
      19       1      19      20     121     120     221     222     323     322
      20       1      20      21     122     121     222     223     324     323
$ ... 380 like lines cut
*SET_NODE_LIST_TITLE
ACCELERATION
$#     sid       da1       da2       da3       da4    solver       its         -
         1       0.0       0.0       0.0       0.0MECH      1                   
$#    nid1      nid2      nid3      nid4      nid5      nid6      nid7      nid8
       102         1       203       304         0         0         0         0
*END
