$# LS-DYNA Keyword file created by LS-PrePost(R) V4.11(Beta)-29Jun2023
$# Created on Jun-9-2024 (00:10:06)
*KEYWORD
*TITLE
$#                                                                         title
1x1x1
*CONTROL_ENERGY
$#    hgen      rwen    slnten     rylen     irgen     maten     drlen     disen
         2         2         1         1         2         1         1         1
*CONTROL_TERMINATION
$#  endtim    endcyc     dtmin    endeng    endmas     nosol
   10000.0         0       0.0       0.0       0.0         0
*CONTROL_UNITS
$#  length      time      mass      temp
mm        ms        kg        K
*DATABASE_ELOUT
$#      dt    binary      lcur     ioopt   option1   option2   option3   option4
       1.0         3         0         1         0         0         0         0
*DATABASE_GLSTAT
$#      dt    binary      lcur     ioopt
       1.0         3         0         1
*DATABASE_MATSUM
$#      dt    binary      lcur     ioopt
       1.0         3         0         1
*DATABASE_NODOUT
$#      dt    binary      lcur     ioopt   option1   option2
       1.0         3         0         1       0.0         0
*DATABASE_SECFORC
$#      dt    binary      lcur     ioopt
       1.0         3         0         1
*DATABASE_BINARY_D3PLOT
$#      dt      lcdt      beam     npltc    psetid
       1.0         0         0         0         0
*DATABASE_BINARY_D3THDT
$#      dt      lcdt      beam     npltc    psetid
       1.0         0         0         0         0
*DATABASE_EXTENT_BINARY
$#   neiph     neips    maxint    strflg    sigflg    epsflg    rltflg    engflg
         0         0         0         1         1         1         1         1
$#  cmpflg    ieverp    beamip     dcomp      shge     stssz    n3thdt   ialemat
         0         0         0         1         1         1         2         0
$# nintsld   pkp_sen      sclp     hydro     msscl     therm    intout    nodout
         0         0       0.0         0         0         0                    
$#    dtdt    resplt     neipb   quadsld    cubsld   deleres
         0         0         0         0         0         0
*DATABASE_CROSS_SECTION_PLANE_ID
$#    csid                                                                 title
         1                                                                      
$#    psid       xct       yct       zct       xch       ych       zch    radius
         0       0.2       0.0       0.0       1.0       0.0       0.0       2.0
$#    xhev      yhev      zhev      lenl      lenm        id     itype
       0.0       1.0       2.0       2.0       2.0         0         0
*DATABASE_HISTORY_NODE_ID
$#     id1                                                               heading
         6                                                                      
*DATABASE_HISTORY_NODE
$#     id1       id2       id3       id4       id5       id6       id7       id8
         7         0         0         0         0         0         0         0
*DATABASE_HISTORY_SOLID
$#     id1       id2       id3       id4       id5       id6       id7       id8
         1         0         0         0         0         0         0         0
*BOUNDARY_PRESCRIBED_MOTION_SET
$#    nsid       dof       vad      lcid        sf       vid     death     birth
         2         1         2         3       1.0         0       0.0       0.0
*BOUNDARY_SPC_NODE
$#     nid       cid      dofx      dofy      dofz     dofrx     dofry     dofrz
         1         0         1         1         1         1         1         1
         2         0         0         1         1         1         1         1
         3         0         0         0         1         1         1         0
         4         0         1         0         1         1         1         1
         5         0         1         1         0         1         1         1
         6         0         0         1         0         1         0         1
         7         0         0         0         0         0         0         0
         8         0         1         0         0         0         1         1
*NODE
$#   nid               x               y               z      tc      rc
       1             0.0             0.0             0.0       0       0
       2             1.0             0.0             0.0       0       0
       3             1.0             1.0             0.0       0       0
       4             0.0             1.0             0.0       0       0
       5             0.0             0.0             1.0       0       0
       6             1.0             0.0             1.0       0       0
       7             1.0             1.0             1.0       0       0
       8             0.0             1.0             1.0       0       0
*HOURGLASS
$#    hgid       ihq        qm       ibq        q1        q2    qb/vdc        qw
         1         2       0.0         0       0.0       0.0       0.0       0.0
*MAT_ADD_EROSION
$#     mid      excl    mxpres     mneps    effeps    voleps    numfip       ncs
         2       0.0       0.0       0.0       2.0       0.0       0.0       0.0
$#  mnpres     sigp1     sigvm     mxeps     epssh     sigth   impulse    failtm
       0.0       0.0       0.0       0.0       0.0       0.0       0.0       0.0
*MAT_JOHNSON_HOLMQUIST_CERAMICS_TITLE
Alumina_Case_C
$#     mid        ro         g         a         b         c         m         n
         13.70000E-9   90160.0      0.93      0.31       0.0       0.6       0.6
$#    epsi         t     sfmax       hel      phel      beta
       1.0     200.0       0.0    2790.0    1460.0       1.0
$#      d1        d2        k1        k2        k3        fs
     0.005       1.0  130950.0       0.0       0.0       0.0
*MAT_JOHNSON_COOK_TITLE
ALU-EPON10
$#     mid        ro         g         e        pr       dtf        vp    rateop
         21.63000E-6      2.35      6.33     0.345       0.0       0.0       0.0
$#       a         b         n         c         m        tm        tr      epso
    0.2513    16.907     6.288    0.0143     0.859     893.0     300.0     0.001
$#      cp        pc     spall        it        d1        d2        d3        d4
       0.0       0.0       2.0       0.0       0.0       0.0       0.0       0.0
$#      d5c2/p/xnp/d      erod     efmin    numint         k      eps1
       0.0       0.0       0.0       0.0       0.0       0.0       0.0
*MAT_JOHNSON_COOK_TITLE
STEEL
$#     mid        ro         g         e        pr       dtf        vp    rateop
         37.86000E-9   81800.0  209000.0      0.28       0.0       0.0       0.0
$#       a         b         n         c         m        tm        tr      epso
     792.0     510.0      0.26     0.014      1.03    1790.0     300.0       1.0
$#      cp        pc     spall        it        d1        d2        d3        d4
     477.0       0.0       2.0       0.0      0.05      3.44     -2.12     0.002
$#      d5c2/p/xnp/d      erod     efmin    numint         k      eps1
      0.61       0.0       0.0       0.0       0.0       0.0       0.0
*MAT_PLASTIC_KINEMATIC_TITLE
Epon_828
$#     mid        ro         e        pr      sigy      etan      beta
         41.15000E-6       4.1      0.37     0.085       0.0       0.0
$#     src       srp        fs        vp
   2431.21      8.45       0.0       0.0
*MAT_SIMPLIFIED_JOHNSON_COOK_TITLE
AluA10
$#     mid        ro         e        pr        vp
         52.82000E-6     28.71     0.315       0.0
$#       a         b         n         c    psfail    sigmax    sigsat      epso
      0.64    190.05     51.66    -26.341.00000E171.00000E281.00000E28       1.0
*MAT_SIMPLIFIED_JOHNSON_COOK_TITLE
PMMA
$#     mid        ro         e        pr        vp
         61.18600E-6       3.3      0.35       0.0
$#       a         b         n         c    psfail    sigmax    sigsat      epso
     0.357      0.09       4.0     0.0771.00000E171.00000E281.00000E28       1.0
*MAT_SIMPLIFIED_JOHNSON_COOK_TITLE
Polycarbonate
$#     mid        ro         e        pr        vp
         71.22000E-6       2.3      0.32       0.0
$#       a         b         n         c    psfail    sigmax    sigsat      epso
      0.08     0.075       2.0  0.0520011.00000E171.00000E281.00000E28       1.0
*MAT_SIMPLIFIED_JOHNSON_COOK_TITLE
AluE15
$#     mid        ro         e        pr        vp
         81.96200E-6      28.3 0.3258159       0.0
$#       a         b         n         c    psfail    sigmax    sigsat      epso
  0.319976    7.0731    26.552     0.0671.00000E171.00000E281.00000E28       1.0
*MAT_SIMPLIFIED_JOHNSON_COOK_TITLE
AluE10
$#     mid        ro         e        pr        vp
        101.62500E-6     6.326     0.345       0.0
$#       a         b         n         c    psfail    sigmax    sigsat      epso
   0.25131  0.016907  0.006288    0.01431.00000E171.00000E281.00000E28       1.0
*MAT_SIMPLIFIED_JOHNSON_COOK_TITLE
AluA15
$#     mid        ro         e        pr        vp
        113.01857E-6    41.097 0.3018619       0.0
$#       a         b         n         c    psfail    sigmax    sigsat      epso
   0.91805    111.61    30.771   -7.41541.00000E171.00000E281.00000E28       1.0
*MAT_SIMPLIFIED_JOHNSON_COOK_TITLE
AluA20
$#     mid        ro         e        pr        vp
        123.11731E-6    49.264 0.2910933       0.0
$#       a         b         n         c    psfail    sigmax    sigsat      epso
  1.196278    35.341    10.472   -4.65271.00000E171.00000E281.00000E28       1.0
*MAT_SIMPLIFIED_JOHNSON_COOK_TITLE
AluE20
$#     mid        ro         e        pr        vp
        132.20600E-6    48.481 0.3114578       0.0
$#       a         b         n         c    psfail    sigmax    sigsat      epso
     0.447    21.612    5.4694    15.4041.00000E171.00000E281.00000E28       1.0
*MAT_JOHNSON_HOLMQUIST_CERAMICS_TITLE
Alu10
$#     mid        ro         g         a         b         c         m         n
        143.02529E-6    39.228      0.93      0.31       0.0       0.6       0.6
$#    epsi         t     sfmax       hel      phel      beta
       1.0       0.2      2.79      1.46   0.01117       2.0
$#      d1        d2        k1        k2        k3        fs
     0.005       1.0     16.67       0.0       0.0       0.0
*MAT_JOHNSON_HOLMQUIST_CERAMICS_TITLE
Alu15
$#     mid        ro         g         a         b         c         m         n
        153.12659E-6     46.88      0.93      0.31       0.0       0.6       0.6
$#    epsi         t     sfmax       hel      phel      beta
       1.0       0.2      2.79      1.46   0.01117       2.0
$#      d1        d2        k1        k2        k3        fs
     0.005       1.0    23.043       0.0       0.0       0.0
*MAT_JOHNSON_HOLMQUIST_CERAMICS_TITLE
Alu20
$#     mid        ro         g         a         b         c         m         n
        163.22026E-6    53.957      0.93      0.31       0.0       0.6       0.6
$#    epsi         t     sfmax       hel      phel      beta
       1.0       0.2      2.79      1.46   0.01117       2.0
$#      d1        d2        k1        k2        k3        fs
     0.005       1.0    29.531       0.0       0.0       0.0
*MAT_JOHNSON_HOLMQUIST_CERAMICS_TITLE
Epo10
$#     mid        ro         g         a         b         c         m         n
        171.62711E-6   17.3956      0.93      0.31       0.0       0.6       0.6
$#    epsi         t     sfmax       hel      phel      beta
       1.0       0.2      2.79      1.46   0.01117       2.0
$#      d1        d2        k1        k2        k3        fs
     0.005       1.0     7.853       0.0       0.0       0.0
*MAT_JOHNSON_HOLMQUIST_CERAMICS_TITLE
Epo15
$#     mid        ro         g         a         b         c         m         n
        181.93831E-6    28.325      0.93      0.31       0.0       0.6       0.6
$#    epsi         t     sfmax       hel      phel      beta
       1.0       0.2      2.79      1.46   0.01117       2.0
$#      d1        d2        k1        k2        k3        fs
     0.005       1.0    14.288       0.0       0.0       0.0
*MAT_JOHNSON_HOLMQUIST_CERAMICS_TITLE
Epo20
$#     mid        ro         g         a         b         c         m         n
        192.22610E-6   38.4335      0.93      0.31       0.0       0.6       0.6
$#    epsi         t     sfmax       hel      phel      beta
       1.0       0.2      2.79      1.46   0.01117       2.0
$#      d1        d2        k1        k2        k3        fs
     0.005       1.0    21.231       0.0       0.0       0.0
*DEFINE_CURVE_TITLE
displacement
$
$: Cross-reference summary for Load-curve 1
$: -----------------------------------------------
$
$: Usage: Transient analysis
$
$#    lcid      sidr       sfa       sfo      offa      offo    dattyp     lcint
         1         0       0.0       0.0       0.0       0.0         0         0
$#                a1                  o1
                 0.0                 0.0
                 1.0                0.05
                 2.0                 0.0
*DEFINE_CURVE
$
$: Cross-reference summary for Load-curve 2
$: -----------------------------------------------
$
$: Boundary Prescribed Motion <No label>: Displacement vs time
$: X axis : Time                       (Units: Time)
$: Y axis : Prescribed displacement    (Units: Displacement)
$
$: Usage: Transient analysis
$
$#    lcid      sidr       sfa       sfo      offa      offo    dattyp     lcint
         2         0       1.0       1.0       0.0       0.0         0         0
$#                a1                  o1
                 0.0                 0.0
              1000.0                 0.5
              2000.0                 1.0
              3000.0                 1.5
              4000.0                 2.0
              5000.0                 2.5
              6000.0                 3.0
              7000.0                 3.5
              8000.0                 4.0
              9000.0                 4.5
             10000.0                 5.0
*DEFINE_CURVE_TITLE
0.5mm/min
$#    lcid      sidr       sfa       sfo      offa      offo    dattyp     lcint
         3         0       1.0       1.0       0.0       0.0         0         0
$#                a1                  o1
                 0.0                 0.0
               100.0    8.3332997747e-04
               200.0           0.0016667
               300.0              0.0025
               400.0           0.0033333
               500.0           0.0041667
               600.0               0.005
               700.0           0.0058333
               800.0           0.0066666
               900.0              0.0075
              1000.0           0.0083333
              1100.0           0.0091666
              1200.0                0.01
              1300.0           0.0108333
              1400.0           0.0116666
              1500.0           0.0124999
              1600.0           0.0133333
              1700.0           0.0141666
              1800.0           0.0149999
              1900.0           0.0158333
$ ... 582 like lines cut
*PART
$PR_PART_COL 1 12
$#                                                                         title

$#     pid     secid       mid     eosid      hgid      grav    adpopt      tmid
         1         1        19         0         0         0         0         0
*SECTION_SOLID_TITLE
section_1
$#   secid    elform       aet    unused    unused    unused    cohoff   gaskeit
         1         3         0                                     0.0       0.0
*EOS_LINEAR_POLYNOMIAL_TITLE
ALU-EPON10
$#   eosid        c0        c1        c2        c3        c4        c5        c6
         1       0.0       6.8       0.0       0.0       0.0       0.0       0.0
$#      e0        v0
       0.0       0.0
*EOS_LINEAR_POLYNOMIAL_TITLE
STEEL
$#   eosid        c0        c1        c2        c3        c4        c5        c6
         2       0.0  159000.0       0.0       0.0       0.0       0.0       0.0
$#      e0        v0
       0.0       0.0
*ELEMENT_SOLID
$#   eid     pid      n1      n2      n3      n4      n5      n6      n7      n8
       1       1       1       2       3       4       5       6       7       8
*SET_NODE_LIST_TITLE
base
$#     sid       da1       da2       da3       da4    solver       its         -
         1       0.0       0.0       0.0       0.0MECH      1                   
$#    nid1      nid2      nid3      nid4      nid5      nid6      nid7      nid8
         1         4         5         8         0         0         0         0
*SET_NODE_LIST_TITLE
top
$#     sid       da1       da2       da3       da4    solver       its         -
         2       0.0       0.0       0.0       0.0MECH      1                   
$#    nid1      nid2      nid3      nid4      nid5      nid6      nid7      nid8
         2         3         6         7         0         0         0         0
*SET_NODE_LIST_TITLE
bottom corner
$#     sid       da1       da2       da3       da4    solver       its         -
         3       0.0       0.0       0.0       0.0MECH      1                   
$#    nid1      nid2      nid3      nid4      nid5      nid6      nid7      nid8
         1         0         0         0         0         0         0         0
*SET_NODE_LIST_TITLE
bottom 3 corner
$#     sid       da1       da2       da3       da4    solver       its         -
         4       0.0       0.0       0.0       0.0MECH      1                   
$#    nid1      nid2      nid3      nid4      nid5      nid6      nid7      nid8
         4         5         8         0         0         0         0         0
*SET_NODE_LIST_TITLE
top 3 corners
$#     sid       da1       da2       da3       da4    solver       its         -
         5       0.0       0.0       0.0       0.0MECH      1                   
$#    nid1      nid2      nid3      nid4      nid5      nid6      nid7      nid8
         3         6         7         0         0         0         0         0
*SET_NODE_LIST_TITLE
top coner
$#     sid       da1       da2       da3       da4    solver       its         -
         6       0.0       0.0       0.0       0.0MECH      1                   
$#    nid1      nid2      nid3      nid4      nid5      nid6      nid7      nid8
         2         0         0         0         0         0         0         0
*END
